data_1
_audit_creation_method   'Generated by vasp2cif'
_cell_length_a    7.13356
_cell_length_b    7.13356
_cell_length_c    7.13356
_cell_angle_alpha    90.0
_cell_angle_beta    90.0
_cell_angle_gamma    90.0

_symmetry_space_group_name_H-M    'P 1'
loop_
_atom_site_label
_atom_site_type_symbol
_atom_site_fract_x
_atom_site_fract_y
_atom_site_fract_z
_atom_site_occupancy
C1   C   0.125000000000000   0.125000000000000   0.125000000000000   1.0
C2   C   0.000000000000000   0.000000000000000   0.000000000000000   1.0
C3   C   0.375000000000000   0.125000000000000   0.375000000000000   1.0
C4   C   0.250000000000000   0.000000000000000   0.250000000000000   1.0
C5   C   0.625000000000000   0.125000000000000   0.625000000000000   1.0
C6   C   0.500000000000000   0.000000000000000   0.500000000000000   1.0
C7   C   0.875000000000000   0.125000000000000   0.875000000000000   1.0
C8   C   0.750000000000000   0.000000000000000   0.750000000000000   1.0
C9   C   0.875000000000000   0.375000000000000   0.125000000000000   1.0
C10   C   0.750000000000000   0.250000000000000   0.000000000000000   1.0
C11   C   0.125000000000000   0.375000000000000   0.375000000000000   1.0
C12   C   0.000000000000000   0.250000000000000   0.250000000000000   1.0
C13   C   0.375000000000000   0.375000000000000   0.625000000000000   1.0
C14   C   0.250000000000000   0.250000000000000   0.500000000000000   1.0
C15   C   0.625000000000000   0.375000000000000   0.875000000000000   1.0
C16   C   0.500000000000000   0.250000000000000   0.750000000000000   1.0
C17   C   0.625000000000000   0.625000000000000   0.125000000000000   1.0
C18   C   0.500000000000000   0.500000000000000   0.000000000000000   1.0
C19   C   0.875000000000000   0.625000000000000   0.375000000000000   1.0
C20   C   0.750000000000000   0.500000000000000   0.250000000000000   1.0
C21   C   0.125000000000000   0.625000000000000   0.625000000000000   1.0
C22   C   0.000000000000000   0.500000000000000   0.500000000000000   1.0
C23   C   0.375000000000000   0.625000000000000   0.875000000000000   1.0
C24   C   0.250000000000000   0.500000000000000   0.750000000000000   1.0
C25   C   0.375000000000000   0.875000000000000   0.125000000000000   1.0
C26   C   0.250000000000000   0.750000000000000   0.000000000000000   1.0
C27   C   0.625000000000000   0.875000000000000   0.375000000000000   1.0
C28   C   0.500000000000000   0.750000000000000   0.250000000000000   1.0
C29   C   0.875000000000000   0.875000000000000   0.625000000000000   1.0
C30   C   0.750000000000000   0.750000000000000   0.500000000000000   1.0
C31   C   0.125000000000000   0.875000000000000   0.875000000000000   1.0
C32   C   0.000000000000000   0.750000000000000   0.750000000000000   1.0
C33   C   0.625000000000000   0.125000000000000   0.125000000000000   1.0
C34   C   0.500000000000000   0.000000000000000   0.000000000000000   1.0
C35   C   0.875000000000000   0.125000000000000   0.375000000000000   1.0
C36   C   0.750000000000000   0.000000000000000   0.250000000000000   1.0
C37   C   0.125000000000000   0.125000000000000   0.625000000000000   1.0
C38   C   0.000000000000000   0.000000000000000   0.500000000000000   1.0
C39   C   0.375000000000000   0.125000000000000   0.875000000000000   1.0
C40   C   0.250000000000000   0.000000000000000   0.750000000000000   1.0
C41   C   0.375000000000000   0.375000000000000   0.125000000000000   1.0
C42   C   0.250000000000000   0.250000000000000   0.000000000000000   1.0
C43   C   0.625000000000000   0.375000000000000   0.375000000000000   1.0
C44   C   0.500000000000000   0.250000000000000   0.250000000000000   1.0
C45   C   0.875000000000000   0.375000000000000   0.625000000000000   1.0
C46   C   0.750000000000000   0.250000000000000   0.500000000000000   1.0
C47   C   0.125000000000000   0.375000000000000   0.875000000000000   1.0
C48   C   0.000000000000000   0.250000000000000   0.750000000000000   1.0
C49   C   0.125000000000000   0.625000000000000   0.125000000000000   1.0
C50   C   0.000000000000000   0.500000000000000   0.000000000000000   1.0
C51   C   0.375000000000000   0.625000000000000   0.375000000000000   1.0
C52   C   0.250000000000000   0.500000000000000   0.250000000000000   1.0
C53   C   0.625000000000000   0.625000000000000   0.625000000000000   1.0
C54   C   0.500000000000000   0.500000000000000   0.500000000000000   1.0
C55   C   0.875000000000000   0.625000000000000   0.875000000000000   1.0
C56   C   0.750000000000000   0.500000000000000   0.750000000000000   1.0
C57   C   0.875000000000000   0.875000000000000   0.125000000000000   1.0
C58   C   0.750000000000000   0.750000000000000   0.000000000000000   1.0
C59   C   0.125000000000000   0.875000000000000   0.375000000000000   1.0
C60   C   0.000000000000000   0.750000000000000   0.250000000000000   1.0
C61   C   0.375000000000000   0.875000000000000   0.625000000000000   1.0
C62   C   0.250000000000000   0.750000000000000   0.500000000000000   1.0
C63   C   0.625000000000000   0.875000000000000   0.875000000000000   1.0
C64   C   0.500000000000000   0.750000000000000   0.750000000000000   1.0


