data_1
_audit_creation_method   'Generated by vasp2cif'
_cell_length_a    2.47
_cell_length_b    2.47
_cell_length_c    6.79
_cell_angle_alpha    90.0
_cell_angle_beta    90.0
_cell_angle_gamma    120.0

_symmetry_space_group_name_H-M    'P 1'
loop_
_atom_site_label
_atom_site_type_symbol
_atom_site_fract_x
_atom_site_fract_y
_atom_site_fract_z
_atom_site_occupancy
C1   C   0.000000000000000   0.000000000000000   0.500000000000000   1.0
C2   C   0.000000000000000   0.000000000000000   0.000000000000000   1.0
C3   C   0.666700000000000   0.333400000000000   0.505000000000000   1.0
C4   C   0.333300000000000   0.666600000000000   0.005000000000000   1.0


