data_1
_audit_creation_method   'Generated by vasp2cif'
_cell_length_a    4.94
_cell_length_b    4.94
_cell_length_c    13.58
_cell_angle_alpha    90.0
_cell_angle_beta    90.0
_cell_angle_gamma    120.0

_symmetry_space_group_name_H-M    'P 1'
loop_
_atom_site_label
_atom_site_type_symbol
_atom_site_fract_x
_atom_site_fract_y
_atom_site_fract_z
_atom_site_occupancy
C1   C   0.000000000000000   0.000000000000000   0.250000000000000   1.0
C2   C   0.000000000000000   0.000000000000000   0.000000000000000   1.0
C3   C   0.333350000000000   0.166700000000000   0.252500000000000   1.0
C4   C   0.166650000000000   0.333300000000000   0.002500000000000   1.0
C5   C   0.000000000000000   0.000000000000000   0.750000000000000   1.0
C6   C   0.000000000000000   0.000000000000000   0.500000000000000   1.0
C7   C   0.333350000000000   0.166700000000000   0.752500000000000   1.0
C8   C   0.166650000000000   0.333300000000000   0.502500000000000   1.0
C9   C   0.000000000000000   0.500000000000000   0.250000000000000   1.0
C10   C   0.000000000000000   0.500000000000000   0.000000000000000   1.0
C11   C   0.333350000000000   0.666700000000000   0.252500000000000   1.0
C12   C   0.166650000000000   0.833300000000000   0.002500000000000   1.0
C13   C   0.000000000000000   0.500000000000000   0.750000000000000   1.0
C14   C   0.000000000000000   0.500000000000000   0.500000000000000   1.0
C15   C   0.333350000000000   0.666700000000000   0.752500000000000   1.0
C16   C   0.166650000000000   0.833300000000000   0.502500000000000   1.0
C17   C   0.500000000000000   0.000000000000000   0.250000000000000   1.0
C18   C   0.500000000000000   0.000000000000000   0.000000000000000   1.0
C19   C   0.833350000000000   0.166700000000000   0.252500000000000   1.0
C20   C   0.666650000000000   0.333300000000000   0.002500000000000   1.0
C21   C   0.500000000000000   0.000000000000000   0.750000000000000   1.0
C22   C   0.500000000000000   0.000000000000000   0.500000000000000   1.0
C23   C   0.833350000000000   0.166700000000000   0.752500000000000   1.0
C24   C   0.666650000000000   0.333300000000000   0.502500000000000   1.0
C25   C   0.500000000000000   0.500000000000000   0.250000000000000   1.0
C26   C   0.500000000000000   0.500000000000000   0.000000000000000   1.0
C27   C   0.833350000000000   0.666700000000000   0.252500000000000   1.0
C28   C   0.666650000000000   0.833300000000000   0.002500000000000   1.0
C29   C   0.500000000000000   0.500000000000000   0.750000000000000   1.0
C30   C   0.500000000000000   0.500000000000000   0.500000000000000   1.0
C31   C   0.833350000000000   0.666700000000000   0.752500000000000   1.0
C32   C   0.666650000000000   0.833300000000000   0.502500000000000   1.0


