data_1
_audit_creation_method   'Generated by vasp2cif'
_cell_length_a    0.866025403784
_cell_length_b    0.866025403784
_cell_length_c    0.866025403784
_cell_angle_alpha    109.471220634
_cell_angle_beta    109.471220634
_cell_angle_gamma    109.471220634

_symmetry_space_group_name_H-M    'P 1'
loop_
_atom_site_label
_atom_site_type_symbol
_atom_site_fract_x
_atom_site_fract_y
_atom_site_fract_z
_atom_site_occupancy
A1   A   0.000000000000000   0.000000000000000   0.000000000000000   1.0


